<?xml version="1.0" encoding="UTF-8"?>

<!-- generated on 2021-12-03 16:31:33 by Eclipse SUMO GUI Version 1.10.0
-->

<configuration xmlns:xsi="http://www.w3.org/2001/XMLSchema-instance" xsi:noNamespaceSchemaLocation="http://sumo.dlr.de/xsd/sumoConfiguration.xsd">

    <input>
        <net-file value="roundy.net.xml"/>
        <route-files value="roundy.rou.xml"/>
    </input>

</configuration>
