<?xml version="1.0" encoding="UTF-8"?>

<!-- generated on 2023-10-26 20:09:19 by Eclipse SUMO sumo Version 1.16.0
-->

<configuration xmlns:xsi="http://www.w3.org/2001/XMLSchema-instance" xsi:noNamespaceSchemaLocation="http://sumo.dlr.de/xsd/sumoConfiguration.xsd">

    <input>
        <net-file value="highway_2.net.xml"/>
    </input>

</configuration>
