<?xml version="1.0" encoding="UTF-8"?>

<!-- generated on 12/19/22 21:40:57 by Eclipse SUMO netedit Version 1.8.0
<configuration xmlns:xsi="http://www.w3.org/2001/XMLSchema-instance" xsi:noNamespaceSchemaLocation="http://sumo.dlr.de/xsd/netconvertConfiguration.xsd">

    <input>
        <sumo-net-file value="N:\Documents\Thesis_Masters\Dev\master_thesis\test\cacc\cacc_Single_Lane_full.net.xml"/>
    </input>

    <output>
        <output-file value="N:\Documents\Thesis_Masters\Dev\master_thesis\test\cacc\cacc_Single_Lane_full.net.xml"/>
        <output.street-names value="true"/>
    </output>

    <processing>
        <geometry.min-radius.fix.railways value="false"/>
        <geometry.max-grade.fix value="false"/>
        <offset.disable-normalization value="true"/>
        <lefthand value="false"/>
    </processing>

    <junctions>
        <no-turnarounds value="true"/>
        <junctions.corner-detail value="5"/>
        <junctions.limit-turn-speed value="5.5"/>
        <rectangular-lane-cut value="false"/>
    </junctions>

    <pedestrian>
        <walkingareas value="false"/>
    </pedestrian>

    <report>
        <aggregate-warnings value="5"/>
    </report>

</configuration>
-->

<net version="1.6" junctionCornerDetail="5" limitTurnSpeed="5.50" xmlns:xsi="http://www.w3.org/2001/XMLSchema-instance" xsi:noNamespaceSchemaLocation="http://sumo.dlr.de/xsd/net_file.xsd">

    <location netOffset="0.00,0.00" convBoundary="0.00,0.00,12874.74,0.00" origBoundary="-10000000000.00,-10000000000.00,10000000000.00,10000000000.00" projParameter="!"/>

    <edge id=":gneJ1_0" function="internal">
        <lane id=":gneJ1_0_0" index="0" speed="33.53" length="0.10" shape="3218.69,-1.60 3218.69,-1.60"/>
    </edge>
    <edge id=":gneJ2_0" function="internal">
        <lane id=":gneJ2_0_0" index="0" speed="33.53" length="0.10" shape="9656.05,-1.60 9656.05,-1.60"/>
    </edge>

    <edge id="e0" from="gneJ0" to="gneJ1" name="e0" priority="-1" length="1609.34" shape="0.00,0.00 55.05,0.00 3218.69,0.00">
        <lane id="e0_0" index="0" speed="33.53" length="1609.34" shape="0.00,-1.60 55.05,-1.60 3218.69,-1.60"/>
    </edge>
    <edge id="e1" from="gneJ1" to="gneJ2" name="e1" priority="-1" length="2000.00">
        <lane id="e1_0" index="0" speed="33.53" length="2000.00" shape="3218.69,-1.60 9656.05,-1.60"/>
    </edge>
    <edge id="e2" from="gneJ2" to="gneJ3" name="e2" priority="-1" length="1000.00">
        <lane id="e2_0" index="0" speed="33.53" length="1000.00" shape="9656.05,-1.60 12874.74,-1.60"/>
    </edge>

    <junction id="gneJ0" type="dead_end" x="0.00" y="0.00" incLanes="" intLanes="" shape="0.00,0.00 0.00,-3.20"/>
    <junction id="gneJ1" type="priority" x="3218.69" y="0.00" incLanes="e0_0" intLanes=":gneJ1_0_0" shape="3218.69,0.00 3218.69,-3.20 3218.69,0.00">
        <request index="0" response="0" foes="0" cont="0"/>
    </junction>
    <junction id="gneJ2" type="priority" x="9656.05" y="0.00" incLanes="e1_0" intLanes=":gneJ2_0_0" shape="9656.05,0.00 9656.05,-3.20 9656.05,0.00">
        <request index="0" response="0" foes="0" cont="0"/>
    </junction>
    <junction id="gneJ3" type="dead_end" x="12874.74" y="0.00" incLanes="e2_0" intLanes="" shape="12874.74,-3.20 12874.74,0.00"/>

    <connection from="e0" to="e1" fromLane="0" toLane="0" via=":gneJ1_0_0" dir="s" state="M"/>
    <connection from="e1" to="e2" fromLane="0" toLane="0" via=":gneJ2_0_0" dir="s" state="M"/>

    <connection from=":gneJ1_0" to="e1" fromLane="0" toLane="0" dir="s" state="M"/>
    <connection from=":gneJ2_0" to="e2" fromLane="0" toLane="0" dir="s" state="M"/>

</net>
