<?xml version="1.0" encoding="UTF-8"?>

<!-- generated on 07/08/21 13:55:36 by Eclipse SUMO netedit Version 1.8.0
<configuration xmlns:xsi="http://www.w3.org/2001/XMLSchema-instance" xsi:noNamespaceSchemaLocation="http://sumo.dlr.de/xsd/netconvertConfiguration.xsd">

    <input>
        <sumo-net-file value="C:\Users\bioni\Sumo\2021-07-06\oneLane0.net.xml"/>
    </input>

    <output>
        <output-file value="C:\Users\bioni\Sumo\2021-07-06\oneLane0.net.xml"/>
    </output>

    <processing>
        <geometry.min-radius.fix.railways value="false"/>
        <geometry.max-grade.fix value="false"/>
        <offset.disable-normalization value="true"/>
        <lefthand value="false"/>
    </processing>

    <junctions>
        <no-turnarounds value="true"/>
        <junctions.corner-detail value="5"/>
        <junctions.limit-turn-speed value="5.5"/>
        <rectangular-lane-cut value="false"/>
    </junctions>

    <pedestrian>
        <walkingareas value="false"/>
    </pedestrian>

    <report>
        <aggregate-warnings value="5"/>
    </report>

</configuration>
-->

<net version="1.6" junctionCornerDetail="5" limitTurnSpeed="5.50" xmlns:xsi="http://www.w3.org/2001/XMLSchema-instance" xsi:noNamespaceSchemaLocation="http://sumo.dlr.de/xsd/net_file.xsd">

    <location netOffset="0.00,0.00" convBoundary="-45.14,23.99,317.60,67.38" origBoundary="-10000000000.00,-10000000000.00,10000000000.00,10000000000.00" projParameter="!"/>

    <edge id=":J2_0" function="internal">
        <lane id=":J2_0_0" index="0" speed="9.38" length="3.78" shape="58.08,54.96 59.07,55.49 59.79,55.77 60.56,55.88 61.67,55.90"/>
    </edge>
    <edge id=":J2_1" function="internal">
        <lane id=":J2_1_0" index="0" speed="13.89" length="3.76" shape="57.90,59.14 61.67,59.10"/>
        <lane id=":J2_1_1" index="1" speed="13.89" length="3.76" shape="57.91,62.34 61.67,62.30"/>
        <lane id=":J2_1_2" index="2" speed="13.89" length="3.76" shape="57.92,65.54 61.67,65.50"/>
    </edge>
    <edge id=":J3_0" function="internal">
        <lane id=":J3_0_0" index="0" speed="13.89" length="8.00" shape="184.93,59.10 192.93,59.10"/>
        <lane id=":J3_0_1" index="1" speed="13.89" length="8.00" shape="184.93,62.30 192.93,62.30"/>
        <lane id=":J3_0_2" index="2" speed="13.89" length="8.00" shape="184.93,65.50 192.93,65.50"/>
    </edge>
    <edge id=":J4_0" function="internal">
        <lane id=":J4_0_0" index="0" speed="13.89" length="0.30" shape="266.90,59.10 267.22,59.10"/>
        <lane id=":J4_0_1" index="1" speed="13.89" length="0.30" shape="266.90,62.30 267.20,62.30"/>
        <lane id=":J4_0_2" index="2" speed="13.89" length="0.30" shape="266.90,65.50 267.18,65.50"/>
    </edge>

    <edge id="e1" from="J1" to="J2" priority="-1">
        <lane id="e1_0" index="0" speed="13.89" length="103.06" shape="-45.16,59.35 57.90,59.14"/>
        <lane id="e1_1" index="1" speed="13.89" length="103.06" shape="-45.15,62.55 57.91,62.34"/>
        <lane id="e1_2" index="2" speed="13.89" length="103.06" shape="-45.14,65.75 57.92,65.54"/>
    </edge>
    <edge id="e2" from="J2" to="J3" priority="-1" length="125.00">
        <lane id="e2_0" index="0" speed="13.89" length="125.00" shape="61.67,55.90 184.93,55.90"/>
        <lane id="e2_1" index="1" speed="13.89" length="125.00" shape="61.67,59.10 184.93,59.10"/>
        <lane id="e2_2" index="2" speed="13.89" length="125.00" shape="61.67,62.30 184.93,62.30"/>
        <lane id="e2_3" index="3" speed="13.89" length="125.00" shape="61.67,65.50 184.93,65.50"/>
    </edge>
    <edge id="e3" from="J3" to="J4" priority="-1">
        <lane id="e3_0" index="0" speed="13.89" length="73.97" shape="192.93,59.10 266.90,59.10"/>
        <lane id="e3_1" index="1" speed="13.89" length="73.97" shape="192.93,62.30 266.90,62.30"/>
        <lane id="e3_2" index="2" speed="13.89" length="73.97" shape="192.93,65.50 266.90,65.50"/>
    </edge>
    <edge id="e4" from="J4" to="J5" priority="-1">
        <lane id="e4_0" index="0" speed="13.89" length="50.42" shape="267.22,59.10 317.64,59.38"/>
        <lane id="e4_1" index="1" speed="13.89" length="50.42" shape="267.20,62.30 317.63,62.58"/>
        <lane id="e4_2" index="2" speed="13.89" length="50.42" shape="267.18,65.50 317.61,65.78"/>
    </edge>
    <edge id="e7" from="J8" to="J2" priority="-1">
        <lane id="e7_0" index="0" speed="13.89" length="66.21" shape="0.32,22.59 58.08,54.96"/>
    </edge>

    <junction id="J1" type="dead_end" x="-45.14" y="67.35" incLanes="" intLanes="" shape="-45.14,67.35 -45.16,57.75"/>
    <junction id="J2" type="priority" x="76.47" y="67.10" incLanes="e7_0 e1_0 e1_1 e1_2" intLanes=":J2_0_0 :J2_1_0 :J2_1_1 :J2_1_2" shape="61.67,67.10 61.67,54.30 60.58,54.27 60.20,54.20 59.83,54.07 59.41,53.87 58.87,53.57 57.30,56.36 58.30,57.01 58.50,57.24 58.50,57.41 58.30,57.50 57.90,57.54 57.92,67.14">
        <request index="0" response="0000" foes="0000" cont="0"/>
        <request index="1" response="0000" foes="0000" cont="0"/>
        <request index="2" response="0000" foes="0000" cont="0"/>
        <request index="3" response="0000" foes="0000" cont="0"/>
    </junction>
    <junction id="J3" type="priority" x="188.93" y="67.10" incLanes="e2_0 e2_1 e2_2 e2_3" intLanes=":J3_0_0 :J3_0_1 :J3_0_2" shape="192.93,67.10 192.93,57.50 189.90,56.67 187.96,55.13 186.72,54.54 184.93,54.30 184.93,67.10">
        <request index="0" response="000" foes="000" cont="0"/>
        <request index="1" response="000" foes="000" cont="0"/>
        <request index="2" response="000" foes="000" cont="0"/>
    </junction>
    <junction id="J4" type="priority" x="267.04" y="67.10" incLanes="e3_0 e3_1 e3_2" intLanes=":J4_0_0 :J4_0_1 :J4_0_2" shape="267.18,67.10 267.23,57.50 266.90,57.50 266.90,67.10">
        <request index="0" response="000" foes="000" cont="0"/>
        <request index="1" response="000" foes="000" cont="0"/>
        <request index="2" response="000" foes="000" cont="0"/>
    </junction>
    <junction id="J5" type="dead_end" x="317.60" y="67.38" incLanes="e4_0 e4_1 e4_2" intLanes="" shape="317.65,57.78 317.60,67.38"/>
    <junction id="J8" type="dead_end" x="-0.46" y="23.99" incLanes="" intLanes="" shape="-0.46,23.99 1.10,21.20"/>

    <connection from="e1" to="e2" fromLane="0" toLane="1" via=":J2_1_0" dir="s" state="M"/>
    <connection from="e1" to="e2" fromLane="1" toLane="2" via=":J2_1_1" dir="s" state="M"/>
    <connection from="e1" to="e2" fromLane="2" toLane="3" via=":J2_1_2" dir="s" state="M"/>
    <connection from="e2" to="e3" fromLane="1" toLane="0" via=":J3_0_0" dir="s" state="M"/>
    <connection from="e2" to="e3" fromLane="2" toLane="1" via=":J3_0_1" dir="s" state="M"/>
    <connection from="e2" to="e3" fromLane="3" toLane="2" via=":J3_0_2" dir="s" state="M"/>
    <connection from="e3" to="e4" fromLane="0" toLane="0" via=":J4_0_0" dir="s" state="M"/>
    <connection from="e3" to="e4" fromLane="1" toLane="1" via=":J4_0_1" dir="s" state="M"/>
    <connection from="e3" to="e4" fromLane="2" toLane="2" via=":J4_0_2" dir="s" state="M"/>
    <connection from="e7" to="e2" fromLane="0" toLane="0" via=":J2_0_0" dir="s" state="M"/>

    <connection from=":J2_0" to="e2" fromLane="0" toLane="0" dir="s" state="M"/>
    <connection from=":J2_1" to="e2" fromLane="0" toLane="1" dir="s" state="M"/>
    <connection from=":J2_1" to="e2" fromLane="1" toLane="2" dir="s" state="M"/>
    <connection from=":J2_1" to="e2" fromLane="2" toLane="3" dir="s" state="M"/>
    <connection from=":J3_0" to="e3" fromLane="0" toLane="0" dir="s" state="M"/>
    <connection from=":J3_0" to="e3" fromLane="1" toLane="1" dir="s" state="M"/>
    <connection from=":J3_0" to="e3" fromLane="2" toLane="2" dir="s" state="M"/>
    <connection from=":J4_0" to="e4" fromLane="0" toLane="0" dir="s" state="M"/>
    <connection from=":J4_0" to="e4" fromLane="1" toLane="1" dir="s" state="M"/>
    <connection from=":J4_0" to="e4" fromLane="2" toLane="2" dir="s" state="M"/>

</net>
