<additionals>

    <!--rerouter id="rerouter_0" edges="e1" probability="1">
        <interval begin="0" end="10000">
		   <destProbReroute id="e2"/>
		</interval>
    </rerouter>

    <rerouter id="rerouter_2" edges="e4" probability="1">
        <interval begin="0" end="10000">
		   <destProbReroute id="e1"/>
		</interval>
    </rerouter-->
    <additional>
      <inductionLoop id="myLoop0" lane="e3_0" pos="10" freq="60" file="20210708_tripInfo/inductionLoop_e30.xml"/>
      <inductionLoop id="myLoop1" lane="e3_1" pos="10" freq="60" file="20210708_tripInfo/inductionLoop_e31.xml"/>
      <inductionLoop id="myLoop2" lane="e3_2" pos="10" freq="60" file="20210708_tripInfo/inductionLoop_e32.xml"/>
    </additional>
    <!--e1Detector id="det_0" lane="e4_0" pos="10" freq="500" file="det.out.xml" /-->

</additionals>
