<?xml version="1.0" encoding="UTF-8"?>

<!-- generated on 07/21/21 15:28:41 by Eclipse SUMO netedit Version 1.8.0
<configuration xmlns:xsi="http://www.w3.org/2001/XMLSchema-instance" xsi:noNamespaceSchemaLocation="http://sumo.dlr.de/xsd/netconvertConfiguration.xsd">

    <input>
        <sumo-net-file value="N:\Documents\UAV%20Master%20Lab\ODOT%20-%20Connected%20Automated%20Vehicles\ODOT_CAV-master\Sumo\2021-07-14\cacc_platooning_a0.net.xml"/>
    </input>

    <output>
        <output-file value="N:\Documents\UAV%20Master%20Lab\ODOT%20-%20Connected%20Automated%20Vehicles\ODOT_CAV-master\Sumo\2021-07-14\cacc_platooning_a0.net.xml"/>
    </output>

    <processing>
        <geometry.min-radius.fix.railways value="false"/>
        <geometry.max-grade.fix value="false"/>
        <offset.disable-normalization value="true"/>
        <lefthand value="false"/>
    </processing>

    <junctions>
        <no-turnarounds value="true"/>
        <junctions.corner-detail value="5"/>
        <junctions.limit-turn-speed value="5.5"/>
        <rectangular-lane-cut value="false"/>
    </junctions>

    <pedestrian>
        <walkingareas value="false"/>
    </pedestrian>

    <report>
        <aggregate-warnings value="5"/>
    </report>

</configuration>
-->

<net version="1.6" junctionCornerDetail="5" limitTurnSpeed="5.50" xmlns:xsi="http://www.w3.org/2001/XMLSchema-instance" xsi:noNamespaceSchemaLocation="http://sumo.dlr.de/xsd/net_file.xsd">

    <location netOffset="0.00,0.00" convBoundary="0.00,-25.00,325.00,0.00" origBoundary="-10000000000.00,-10000000000.00,10000000000.00,10000000000.00" projParameter="!"/>

    <edge id=":J2_0" function="internal">
        <lane id=":J2_0_0" index="0" speed="11.25" length="3.66" shape="57.55,-11.96 58.54,-11.53 59.25,-11.30 59.99,-11.21 61.07,-11.20"/>
    </edge>
    <edge id=":J2_1" function="internal">
        <lane id=":J2_1_0" index="0" speed="13.89" length="3.69" shape="57.38,-8.00 61.07,-8.00"/>
        <lane id=":J2_1_1" index="1" speed="13.89" length="3.69" shape="57.38,-4.80 61.07,-4.80"/>
        <lane id=":J2_1_2" index="2" speed="13.89" length="3.69" shape="57.38,-1.60 61.07,-1.60"/>
    </edge>
    <edge id=":J3_0" function="internal">
        <lane id=":J3_0_0" index="0" speed="13.89" length="8.00" shape="196.00,-8.00 204.00,-8.00"/>
        <lane id=":J3_0_1" index="1" speed="13.89" length="8.00" shape="196.00,-4.80 204.00,-4.80"/>
        <lane id=":J3_0_2" index="2" speed="13.89" length="8.00" shape="196.00,-1.60 204.00,-1.60"/>
    </edge>
    <edge id=":J4_0" function="internal">
        <lane id=":J4_0_0" index="0" speed="13.89" length="0.10" shape="300.00,-8.00 300.00,-8.00"/>
        <lane id=":J4_0_1" index="1" speed="13.89" length="0.10" shape="300.00,-4.80 300.00,-4.80"/>
        <lane id=":J4_0_2" index="2" speed="13.89" length="0.10" shape="300.00,-1.60 300.00,-1.60"/>
    </edge>

    <edge id="e1" from="J1" to="J2" priority="-1" length="80.00">
        <lane id="e1_0" index="0" speed="13.89" length="80.00" shape="0.00,-8.00 57.38,-8.00"/>
        <lane id="e1_1" index="1" speed="13.89" length="80.00" shape="0.00,-4.80 57.38,-4.80"/>
        <lane id="e1_2" index="2" speed="13.89" length="80.00" shape="0.00,-1.60 57.38,-1.60"/>
    </edge>
    <edge id="e2" from="J2" to="J3" priority="-1" length="125.00">
        <lane id="e2_0" index="0" speed="13.89" length="125.00" shape="61.07,-11.20 196.00,-11.20"/>
        <lane id="e2_1" index="1" speed="13.89" length="125.00" shape="61.07,-8.00 196.00,-8.00"/>
        <lane id="e2_2" index="2" speed="13.89" length="125.00" shape="61.07,-4.80 196.00,-4.80"/>
        <lane id="e2_3" index="3" speed="13.89" length="125.00" shape="61.07,-1.60 196.00,-1.60"/>
    </edge>
    <edge id="e3" from="J3" to="J4" priority="-1" length="100.00">
        <lane id="e3_0" index="0" speed="13.89" length="100.00" shape="204.00,-8.00 300.00,-8.00"/>
        <lane id="e3_1" index="1" speed="13.89" length="100.00" shape="204.00,-4.80 300.00,-4.80"/>
        <lane id="e3_2" index="2" speed="13.89" length="100.00" shape="204.00,-1.60 300.00,-1.60"/>
    </edge>
    <edge id="e4" from="J4" to="J5" priority="-1" length="25.00">
        <lane id="e4_0" index="0" speed="13.89" length="25.00" shape="300.00,-8.00 325.00,-8.00"/>
        <lane id="e4_1" index="1" speed="13.89" length="25.00" shape="300.00,-4.80 325.00,-4.80"/>
        <lane id="e4_2" index="2" speed="13.89" length="25.00" shape="300.00,-1.60 325.00,-1.60"/>
    </edge>
    <edge id="e7" from="J8" to="J2" priority="-1">
        <lane id="e7_0" index="0" speed="13.89" length="35.02" shape="25.66,-26.46 57.55,-11.96"/>
    </edge>

    <junction id="J1" type="dead_end" x="0.00" y="0.00" incLanes="" intLanes="" shape="0.00,0.00 0.00,-9.60"/>
    <junction id="J2" type="priority" x="80.00" y="0.00" incLanes="e7_0 e1_0 e1_1 e1_2" intLanes=":J2_0_0 :J2_1_0 :J2_1_1 :J2_1_2" shape="61.07,0.00 61.07,-12.80 59.98,-12.83 59.59,-12.88 59.22,-12.99 58.78,-13.16 58.21,-13.42 56.88,-10.51 57.38,-9.60 57.38,0.00">
        <request index="0" response="0000" foes="0000" cont="0"/>
        <request index="1" response="0000" foes="0000" cont="0"/>
        <request index="2" response="0000" foes="0000" cont="0"/>
        <request index="3" response="0000" foes="0000" cont="0"/>
    </junction>
    <junction id="J3" type="priority" x="200.00" y="0.00" incLanes="e2_0 e2_1 e2_2 e2_3" intLanes=":J3_0_0 :J3_0_1 :J3_0_2" shape="204.00,0.00 204.00,-9.60 200.97,-10.43 199.03,-11.97 197.79,-12.56 196.00,-12.80 196.00,0.00">
        <request index="0" response="000" foes="000" cont="0"/>
        <request index="1" response="000" foes="000" cont="0"/>
        <request index="2" response="000" foes="000" cont="0"/>
    </junction>
    <junction id="J4" type="priority" x="300.00" y="0.00" incLanes="e3_0 e3_1 e3_2" intLanes=":J4_0_0 :J4_0_1 :J4_0_2" shape="300.00,0.00 300.00,-9.60 300.00,0.00">
        <request index="0" response="000" foes="000" cont="0"/>
        <request index="1" response="000" foes="000" cont="0"/>
        <request index="2" response="000" foes="000" cont="0"/>
    </junction>
    <junction id="J5" type="dead_end" x="325.00" y="0.00" incLanes="e4_0 e4_1 e4_2" intLanes="" shape="325.00,-9.60 325.00,0.00"/>
    <junction id="J8" type="dead_end" x="25.00" y="-25.00" incLanes="" intLanes="" shape="25.00,-25.00 26.32,-27.91"/>

    <connection from="e1" to="e2" fromLane="0" toLane="1" via=":J2_1_0" dir="s" state="M"/>
    <connection from="e1" to="e2" fromLane="1" toLane="2" via=":J2_1_1" dir="s" state="M"/>
    <connection from="e1" to="e2" fromLane="2" toLane="3" via=":J2_1_2" dir="s" state="M"/>
    <connection from="e2" to="e3" fromLane="1" toLane="0" via=":J3_0_0" dir="s" state="M"/>
    <connection from="e2" to="e3" fromLane="2" toLane="1" via=":J3_0_1" dir="s" state="M"/>
    <connection from="e2" to="e3" fromLane="3" toLane="2" via=":J3_0_2" dir="s" state="M"/>
    <connection from="e3" to="e4" fromLane="0" toLane="0" via=":J4_0_0" dir="s" state="M"/>
    <connection from="e3" to="e4" fromLane="1" toLane="1" via=":J4_0_1" dir="s" state="M"/>
    <connection from="e3" to="e4" fromLane="2" toLane="2" via=":J4_0_2" dir="s" state="M"/>
    <connection from="e7" to="e2" fromLane="0" toLane="0" via=":J2_0_0" dir="s" state="M"/>

    <connection from=":J2_0" to="e2" fromLane="0" toLane="0" dir="s" state="M"/>
    <connection from=":J2_1" to="e2" fromLane="0" toLane="1" dir="s" state="M"/>
    <connection from=":J2_1" to="e2" fromLane="1" toLane="2" dir="s" state="M"/>
    <connection from=":J2_1" to="e2" fromLane="2" toLane="3" dir="s" state="M"/>
    <connection from=":J3_0" to="e3" fromLane="0" toLane="0" dir="s" state="M"/>
    <connection from=":J3_0" to="e3" fromLane="1" toLane="1" dir="s" state="M"/>
    <connection from=":J3_0" to="e3" fromLane="2" toLane="2" dir="s" state="M"/>
    <connection from=":J4_0" to="e4" fromLane="0" toLane="0" dir="s" state="M"/>
    <connection from=":J4_0" to="e4" fromLane="1" toLane="1" dir="s" state="M"/>
    <connection from=":J4_0" to="e4" fromLane="2" toLane="2" dir="s" state="M"/>

</net>
