<?xml version="1.0" encoding="UTF-8"?>

<!-- generated on 01/09/23 20:32:12 by Eclipse SUMO netedit Version 1.8.0
<configuration xmlns:xsi="http://www.w3.org/2001/XMLSchema-instance" xsi:noNamespaceSchemaLocation="http://sumo.dlr.de/xsd/netconvertConfiguration.xsd">

    <output>
        <output-file value="N:\Documents\Thesis_Masters\Dev\master_thesis\test\FIS\highway_0.net.xml"/>
    </output>

    <processing>
        <offset.disable-normalization value="true"/>
    </processing>

    <junctions>
        <no-turnarounds value="true"/>
    </junctions>

    <report>
        <aggregate-warnings value="5"/>
    </report>

</configuration>
-->

<net version="1.6" junctionCornerDetail="5" limitTurnSpeed="5.50" xmlns:xsi="http://www.w3.org/2001/XMLSchema-instance" xsi:noNamespaceSchemaLocation="http://sumo.dlr.de/xsd/net_file.xsd">

    <location netOffset="0.00,0.00" convBoundary="0.00,-0.00,24140.16,0.00" origBoundary="10000000000.00,10000000000.00,-10000000000.00,-10000000000.00" projParameter="!"/>

    <edge id=":gneJ1_0" function="internal">
        <lane id=":gneJ1_0_0" index="0" speed="33.53" length="0.10" shape="8046.72,0.00 8046.72,0.00"/>
    </edge>
    <edge id=":gneJ4_0" function="internal">
        <lane id=":gneJ4_0_0" index="0" speed="33.53" length="0.10" shape="16093.44,-0.00 16093.44,0.00"/>
    </edge>

    <edge id="gneE0" from="gneJ0" to="gneJ1" priority="-1" spreadType="center">
        <lane id="gneE0_0" index="0" speed="33.53" length="8046.72" shape="0.00,0.00 8046.72,0.00"/>
    </edge>
    <edge id="gneE1" from="gneJ1" to="gneJ4" priority="-1" spreadType="center">
        <lane id="gneE1_0" index="0" speed="33.53" length="8046.72" shape="8046.72,0.00 16093.44,-0.00"/>
    </edge>
    <edge id="gneE3" from="gneJ4" to="gneJ3" priority="-1" spreadType="center">
        <lane id="gneE3_0" index="0" speed="33.53" length="8046.72" shape="16093.44,0.00 24140.16,0.00"/>
    </edge>

    <junction id="gneJ0" type="dead_end" x="0.00" y="0.00" incLanes="" intLanes="" shape="0.00,1.60 0.00,-1.60"/>
    <junction id="gneJ1" type="priority" x="8046.72" y="0.00" incLanes="gneE0_0" intLanes=":gneJ1_0_0" shape="8046.72,1.60 8046.72,-1.60 8046.72,1.60">
        <request index="0" response="0" foes="0" cont="0"/>
    </junction>
    <junction id="gneJ3" type="dead_end" x="24140.16" y="0.00" incLanes="gneE3_0" intLanes="" shape="24140.16,-1.60 24140.16,1.60"/>
    <junction id="gneJ4" type="priority" x="16093.44" y="0.00" incLanes="gneE1_0" intLanes=":gneJ4_0_0" shape="16093.44,1.60 16093.44,-1.60 16093.44,1.60">
        <request index="0" response="0" foes="0" cont="0"/>
    </junction>

    <connection from="gneE0" to="gneE1" fromLane="0" toLane="0" via=":gneJ1_0_0" dir="s" state="M"/>
    <connection from="gneE1" to="gneE3" fromLane="0" toLane="0" via=":gneJ4_0_0" dir="s" state="M"/>

    <connection from=":gneJ1_0" to="gneE1" fromLane="0" toLane="0" dir="s" state="M"/>
    <connection from=":gneJ4_0" to="gneE3" fromLane="0" toLane="0" dir="s" state="M"/>

</net>
