<?xml version="1.0" encoding="UTF-8"?>

<!-- generated on 01/16/23 21:26:51 by Eclipse SUMO GUI Version 1.8.0
-->

<configuration xmlns:xsi="http://www.w3.org/2001/XMLSchema-instance" xsi:noNamespaceSchemaLocation="http://sumo.dlr.de/xsd/sumoConfiguration.xsd">

    <input>
        <net-file value="N:\Documents\Thesis_Masters\Dev\master_thesis\test\FIS\highway_1.net.xml"/>
    </input>

</configuration>
