<additional>
	<additional>
		<inductionLoop id="myLoop0" lane="gneE3_0" pos="10" freq="60" file="induction.xml" />
	</additional>
</additional>
